tests/data/power_flow/pandapower-symmetric-shunt/input.json
{
  "node": [
    {
      "id": 1,
      "u_rated": 10500.0
    },
    {
      "id": 2,
      "u_rated": 10500.0
    }
  ],
  "line": [
    {
      "id": 3,
      "from_node": 1,
      "to_node": 2,
      "from_status": 1,
      "to_status": 1,
      "r1": 0.25,
      "x1": 0.2,
      "c1": 1e-05,
      "tan1": 0.0,
      "r0": 0.25,
      "x0": 0.2,
      "c0": 1e-05,
      "tan0": 0.0,
      "i_n": 1000.0
    }
  ],
  "shunt": [
    {
      "id": 6,
      "node": 2,
      "status": 1,
      "g1": 1e-05,
      "b1": 8e-05,
      "g0": 1e-05,
      "b0": 8e-05
    },
    {
      "id": 7,
      "node": 2,
      "status": 0,
      "g1": 1e-05,
      "b1": 8e-05,
      "g0": 1e-05,
      "b0": 8e-05
    }
  ],
  "source": [
    {
      "id": 4,
      "node": 1,
      "status": 1,
      "u_ref": 1.0,
      "sk": 10000000000.0,
      "rx_ratio": 0.1,
      "z01_ratio": 1.0
    }
  ]
}