tests/data/power_flow/pandapower-symmetric-shunt/sym_output.json
{
  "line": [
    {
      "id": 3,
      "loading": 0.01953391848752733,
      "p_from": 1178.4692755743215,
      "q_from": -355264.86166894285,
      "i_from": 19.533918487527327,
      "s_from": 355266.81624729116,
      "p_to": -1103.3006175205157,
      "q_to": 8826.405022300329,
      "i_to": 0.48892583269913586,
      "s_to": 8895.09403380929
    }
  ],
  "node": [
    {
      "id": 1,
      "u_pu": 1.000035337193379,
      "u": 10500.37104053048,
      "u_angle": -3.652150515074242e-06
    },
    {
      "id": 2,
      "u_pu": 1.000363029361658,
      "u": 10503.81180829741,
      "u_angle": -0.0004184871329874202
    }
  ],
  "shunt": [
    {
      "id": 6,
      "p": 1103.3006250412811,
      "q": -8826.40500033025
    },
    {
      "id": 7,
      "p": 0.0,
      "q": -0.0
    }
  ],
  "source": [
    {
      "id": 4,
      "p": 1178.469263864183,
      "q": -355264.8616635425,
      "i": 19.533918487228263,
      "s": 355266.81624185207
    }
  ]
}